data_cubic_as_slanted
_cell_length_a      10
_cell_length_b      14.142135624
_cell_length_c      10
_cell_angle_alpha   90
_cell_angle_beta    90
_cell_angle_gamma   45
loop_
_atom_site_label
_atom_site_fract_x
_atom_site_fract_y
_atom_site_fract_z
C 0 0 0
# C 0.1 0.1 0.1
S 0 0.5 0.5
H 0.5 0.25 0.75
