data_9000025_0
_space_group_IT_number           2
_symmetry_space_group_name_Hall  '-P 1'
_symmetry_space_group_name_H-M   'P -1'
_cell_angle_alpha                90
_cell_angle_beta                 90
_cell_angle_gamma                120
_cell_length_a                   5.3
_cell_length_b                   5.3
_cell_length_c                   60.0
_cell_volume                     1459.599
loop_
_symmetry_equiv_pos_as_xyz
x,y,z
-x,-y,-z
loop_
_atom_site_label
_atom_site_fract_x
_atom_site_fract_y
_atom_site_fract_z
_atom_site_occupancy
_atom_site_disorder_assembly
_atom_site_disorder_group
Si1 0.33330 0.83330 0.04400 0.75000 X 1
Si2 0.66670 0.50000 0.04400 0.75000 . .
Si3 0.00000 0.16670 0.54400 0.75000 . .
Si4 0.33330 0.83330 0.54400 0.75000 . .
Si5 0.66670 0.83330 0.21070 0.75000 . .
Si6 0.00000 0.50000 0.21070 0.75000 . .
Si7 0.66670 0.50000 0.12270 0.75000 . .
Si8 0.33330 0.83330 0.12270 0.75000 . .
Si9 0.00000 0.83330 0.37730 0.75000 . .
Si10 0.66670 0.16670 0.37730 0.75000 . .
Si11 0.00000 0.50000 0.28930 0.75000 . .
Si12 0.66670 0.83330 0.28930 0.75000 . .
Al1 0.33330 0.83330 0.04400 0.25000 X 2
Al2 0.66670 0.50000 0.04400 0.25000 . .
Al3 0.00000 0.16670 0.54400 0.25000 . .
Al4 0.33330 0.83330 0.54400 0.25000 . .
Al5 0.66670 0.83330 0.21070 0.25000 . .
Al6 0.00000 0.50000 0.21070 0.25000 . .
Al7 0.66670 0.50000 0.12270 0.25000 . .
Al8 0.33330 0.83330 0.12270 0.25000 . .
Al9 0.00000 0.83330 0.37730 0.25000 . .
Al10 0.66670 0.16670 0.37730 0.25000 . .
Al11 0.00000 0.50000 0.28930 0.25000 . .
Al12 0.66670 0.83330 0.28930 0.25000 . .
data_9000025_1
_space_group_IT_number           2
_symmetry_space_group_name_Hall  '-P 1'
_symmetry_space_group_name_H-M   'P -1'
_cell_angle_alpha                90
_cell_angle_beta                 90
_cell_angle_gamma                120
_cell_length_a                   5.3
_cell_length_b                   5.3
_cell_length_c                   60.0
_cell_volume                     1459.599
loop_
_symmetry_equiv_pos_as_xyz
x,y,z
-x,-y,-z
loop_
_atom_site_label
_atom_site_fract_x
_atom_site_fract_y
_atom_site_fract_z
_atom_site_occupancy
_atom_site_disorder_assembly
_atom_site_disorder_group
Si1 0.33330 0.83330 0.04400 0.75000 9 1
Si2 0.66670 0.50000 0.04400 0.75000 . .
Si3 0.00000 0.16670 0.54400 0.75000 . .
Si4 0.33330 0.83330 0.54400 0.75000 . .
Si5 0.66670 0.83330 0.21070 0.75000 . .
Si6 0.00000 0.50000 0.21070 0.75000 . .
Si7 0.66670 0.50000 0.12270 0.75000 . .
Si8 0.33330 0.83330 0.12270 0.75000 . .
Si9 0.00000 0.83330 0.37730 0.75000 . .
Si10 0.66670 0.16670 0.37730 0.75000 . .
Si11 0.00000 0.50000 0.28930 0.75000 . .
Si12 0.66670 0.83330 0.28930 0.75000 . .
Al1 0.33330 0.83330 0.04400 0.25000 9 2
Al2 0.66670 0.50000 0.04400 0.25000 . .
Al3 0.00000 0.16670 0.54400 0.25000 . .
Al4 0.33330 0.83330 0.54400 0.25000 . .
Al5 0.66670 0.83330 0.21070 0.25000 . .
Al6 0.00000 0.50000 0.21070 0.25000 . .
Al7 0.66670 0.50000 0.12270 0.25000 . .
Al8 0.33330 0.83330 0.12270 0.25000 . .
Al9 0.00000 0.83330 0.37730 0.25000 . .
Al10 0.66670 0.16670 0.37730 0.25000 . .
Al11 0.00000 0.50000 0.28930 0.25000 . .
Al12 0.66670 0.83330 0.28930 0.25000 . .
data_9000025_1
_space_group_IT_number           2
_symmetry_space_group_name_Hall  '-P 1'
_symmetry_space_group_name_H-M   'P -1'
_cell_angle_alpha                90
_cell_angle_beta                 90
_cell_angle_gamma                120
_cell_length_a                   5.3
_cell_length_b                   5.3
_cell_length_c                   60.0
_cell_volume                     1459.599
loop_
_symmetry_equiv_pos_as_xyz
x,y,z
-x,-y,-z
loop_
_atom_site_label
_atom_site_fract_x
_atom_site_fract_y
_atom_site_fract_z
_atom_site_occupancy
_atom_site_disorder_assembly
_atom_site_disorder_group
Si1 0.33330 0.83330 0.04400 0.75000 / 1
Si2 0.66670 0.50000 0.04400 0.75000 . .
Si3 0.00000 0.16670 0.54400 0.75000 . .
Si4 0.33330 0.83330 0.54400 0.75000 . .
Si5 0.66670 0.83330 0.21070 0.75000 . .
Si6 0.00000 0.50000 0.21070 0.75000 . .
Si7 0.66670 0.50000 0.12270 0.75000 . .
Si8 0.33330 0.83330 0.12270 0.75000 . .
Si9 0.00000 0.83330 0.37730 0.75000 . .
Si10 0.66670 0.16670 0.37730 0.75000 . .
Si11 0.00000 0.50000 0.28930 0.75000 . .
Si12 0.66670 0.83330 0.28930 0.75000 . .
Al1 0.33330 0.83330 0.04400 0.25000 / 2
Al2 0.66670 0.50000 0.04400 0.25000 . .
Al3 0.00000 0.16670 0.54400 0.25000 . .
Al4 0.33330 0.83330 0.54400 0.25000 . .
Al5 0.66670 0.83330 0.21070 0.25000 . .
Al6 0.00000 0.50000 0.21070 0.25000 . .
Al7 0.66670 0.50000 0.12270 0.25000 . .
Al8 0.33330 0.83330 0.12270 0.25000 . .
Al9 0.00000 0.83330 0.37730 0.25000 . .
Al10 0.66670 0.16670 0.37730 0.25000 . .
Al11 0.00000 0.50000 0.28930 0.25000 . .
Al12 0.66670 0.83330 0.28930 0.25000 . .
