data_many_duplicates
loop_ _publ_author_name 'Saulius Gra\<zulis'
_space_group_name_H-M_alt 'P 1 2 1'
_cell_length_a 10
_cell_length_b 11
_cell_length_c 12
_cell_angle_alpha 90
_cell_angle_beta  90
_cell_angle_gamma 90
loop_
_atom_site_label
_atom_site_fract_x
_atom_site_fract_y
_atom_site_fract_z
C1 0.07 0.07 0.0
C1 0.14 0.14 0.0
C1_0 0.21 0.21 0.0
C1_0 0.28 0.28 0.0
C1_1 0.35 0.35 0.0
C1_1 0.42 0.42 0.0
