data_new7000002
_publ_section_title
;
Eichenseher (2005), Organometallics 24, p245
;
_chemical_formula_sum   'C32 H40 N O P2 Re'
_cell_length_a       9.3511(3)
_cell_length_b       25.5777(4)
_cell_length_c       13.0351(3)
_cell_angle_alpha    90.00
_cell_angle_beta     105.2548(9)
_cell_angle_gamma    90.00
_cell_volume          3007.88
_symmetry_space_group_name_H-M   'P2(1)/c'
loop_
_atom_site_label
_atom_site_symmetry_multiplicity
_atom_site_Wyckoff_symbol
_atom_site_fract_x
_atom_site_fract_y
_atom_site_fract_z
_atom_site_occupancy
_atom_site_Uiso_or_Biso
Re1 ? ? 0.363029(19) 0.632087(6) 0.648484(13) 1 0.02866(7)                      
P1 ? ? 0.32667(12) 0.62877(4) 0.46342(9) 1 0.0250(2)                            
N1 ? ? 0.1725(5) 0.62975(13) 0.6386(3) 1 0.0363(9)                              
O1 ? ? 0.0426(5) 0.62893(14) 0.6364(4) 1 0.0533(10)                             
C1 ? ? 0.3920(5) 0.54817(17) 0.6491(4) 1 0.0386(11)                             
H1A ? ? 0.2958 0.5310 0.6400 1 0.058                                            
H1B ? ? 0.4593 0.5374 0.7169 1 0.058                                            
H1C ? ? 0.4342 0.5381 0.5906 1 0.058                                            
P2 ? ? 0.55450(15) 0.59587(5) 0.92590(10) 1 0.0383(3)                           
C11 ? ? 0.5223(5) 0.64074(16) 0.8129(3) 1 0.0333(10)                            
C12 ? ? 0.4382(6) 0.68793(17) 0.7844(3) 1 0.0380(10)                            
H14A ? ? 0.3729 0.7039 0.8255 1 0.046                                           
C13 ? ? 0.4764(7) 0.71160(19) 0.6963(4) 1 0.0475(13)                            
H15A ? ? 0.4410 0.7463 0.6639 1 0.057                                           
C14 ? ? 0.5848(6) 0.6800(2) 0.6710(4) 1 0.0504(14)                              
H11A ? ? 0.6350 0.6875 0.6136 1 0.060                                           
C15 ? ? 0.6129(6) 0.63663(19) 0.7388(4) 1 0.0429(12)                            
H12A ? ? 0.6886 0.6089 0.7394 1 0.051                                           
C21 ? ? 0.2103(5) 0.68033(16) 0.3858(3) 1 0.0293(9)                             
C22 ? ? 0.1817(5) 0.6813(2) 0.2756(4) 1 0.0438(11)                              
H22A ? ? 0.2212 0.6546 0.2403 1 0.053                                           
C23 ? ? 0.0968(6) 0.7204(2) 0.2171(5) 1 0.0558(15)                              
H23A ? ? 0.0807 0.7212 0.1421 1 0.067                                           
C24 ? ? 0.0342(6) 0.7589(2) 0.2678(5) 1 0.0573(16)                              
H24A ? ? -0.0253 0.7858 0.2277 1 0.069                                          
C25 ? ? 0.0595(6) 0.7573(2) 0.3753(5) 1 0.0559(15)                              
H25A ? ? 0.0157 0.7830 0.4099 1 0.067                                           
C26 ? ? 0.1483(5) 0.71864(18) 0.4358(4) 1 0.0413(11)                            
H26A ? ? 0.1662 0.7186 0.5110 1 0.050                                           
C31 ? ? 0.5015(5) 0.63402(14) 0.4280(3) 1 0.0277(9)                             
C32 ? ? 0.5435(5) 0.67878(17) 0.3819(4) 1 0.0350(10)                            
H32A ? ? 0.4747 0.7065 0.3603 1 0.042                                           
C33 ? ? 0.6848(6) 0.6830(2) 0.3676(4) 1 0.0429(11)                              
H33A ? ? 0.7123 0.7140 0.3374 1 0.051                                           
C34 ? ? 0.7857(6) 0.6430(2) 0.3965(4) 1 0.0439(11)                              
H34A ? ? 0.8816 0.6458 0.3850 1 0.053                                           
C35 ? ? 0.7448(5) 0.5983(2) 0.4430(5) 1 0.0469(12)                              
H35A ? ? 0.8137 0.5705 0.4637 1 0.056                                           
C36 ? ? 0.6050(5) 0.59401(18) 0.4594(4) 1 0.0388(10)                            
H36A ? ? 0.5793 0.5636 0.4923 1 0.047                                           
C41 ? ? 0.2374(5) 0.57081(15) 0.3917(3) 1 0.0274(8)                             
C42 ? ? 0.2888(5) 0.54580(18) 0.3133(4) 1 0.0381(10)                            
H42A ? ? 0.3766 0.5578 0.2973 1 0.046                                           
C43 ? ? 0.2123(6) 0.50338(19) 0.2583(4) 1 0.0441(12)                            
H43A ? ? 0.2476 0.4868 0.2045 1 0.053                                           
C44 ? ? 0.0865(6) 0.48543(19) 0.2815(4) 1 0.0445(12)                            
H44A ? ? 0.0351 0.4562 0.2443 1 0.053                                           
C45 ? ? 0.0345(6) 0.5097(2) 0.3585(4) 1 0.0458(12)                              
H45A ? ? -0.0536 0.4975 0.3738 1 0.055                                          
C46 ? ? 0.1095(5) 0.55195(18) 0.4140(4) 1 0.0358(10)                            
H46A ? ? 0.0733 0.5682 0.4677 1 0.043                                           
C50 ? ? 0.3880(6) 0.6034(2) 0.9835(4) 1 0.0522(13)                              
C51 ? ? 0.2492(8) 0.5939(4) 0.8940(6) 1 0.088(2)                                
H51A ? ? 0.1615 0.5977 0.9212 1 0.132                                           
H51B ? ? 0.2520 0.5585 0.8659 1 0.132                                           
H51C ? ? 0.2446 0.6195 0.8371 1 0.132                                           
C52 ? ? 0.3701(9) 0.6565(3) 1.0361(6) 1 0.078(2)                                
H52A ? ? 0.2811 0.6556 1.0624 1 0.117                                           
H52B ? ? 0.3606 0.6846 0.9835 1 0.117                                           
H52C ? ? 0.4572 0.6630 1.0956 1 0.117                                           
C53 ? ? 0.4013(9) 0.5624(3) 1.0689(6) 1 0.078(2)                                
H53A ? ? 0.3172 0.5654 1.1002 1 0.116                                           
H53B ? ? 0.4939 0.5677 1.1243 1 0.116                                           
H53C ? ? 0.4016 0.5276 1.0376 1 0.116                                           
C60 ? ? 0.7207(7) 0.62840(19) 1.0189(5) 1 0.0507(14)                            
C61 ? ? 0.7131(9) 0.6868(3) 1.0279(8) 1 0.106(3)                                
H61A ? ? 0.8038 0.6996 1.0780 1 0.160                                           
H61B ? ? 0.6271 0.6963 1.0537 1 0.160                                           
H61C ? ? 0.7033 0.7027 0.9580 1 0.160                                           
C62 ? ? 0.7567(9) 0.6035(3) 1.1279(5) 1 0.082(2)                                
H62A ? ? 0.8430 0.6209 1.1745 1 0.124                                           
H62B ? ? 0.7788 0.5663 1.1219 1 0.124                                           
H62C ? ? 0.6716 0.6070 1.1580 1 0.124                                           
C63 ? ? 0.8555(8) 0.6154(4) 0.9710(6) 1 0.088(2)                                
H63A ? ? 0.9461 0.6311 1.0158 1 0.132                                           
H63B ? ? 0.8359 0.6296 0.8989 1 0.132                                           
H63C ? ? 0.8679 0.5774 0.9688 1 0.132                                           
#===END
